*Heading
** Job name: Job-10 Model name: Model-5
** Generated by: Abaqus/CAE 2020
*Preprint, echo=NO, model=NO, history=NO, contact=NO
**
** PARTS
**
*Part, name=Vagina
*Node
      1,   2.14872932,   3.89628839,   9.45653057
      2,   2.34672427,   4.25531244,   9.45653057
      3,   1.44391334,   2.61824632,          14.
      4,   1.24591851,   2.25922275,          14.
      5,    1.8596524,    4.4895978,   9.45653057
      6,   1.14422345,   2.76239991,          14.
      7,  0.987323284,   2.38360929,          14.
      8,   1.70275211,   4.11080742,   9.45653057
      9,   2.26486754,   4.10688162,   7.00000048
     10,   2.46286225,   4.46590519,   7.00000048
     11,   1.95168555,   4.71178579,   7.00000048
     12,   1.79478526,   4.33299494,   7.00000048
     13,   2.14872932,   3.89628839,   4.54346943
     14,   1.24591851,   2.25922275,           0.
     15,   1.44391334,   2.61824632,           0.
     16,   2.34672427,   4.25531244,   4.54346943
     17,  0.987323284,   2.38360929,           0.
     18,   1.14422345,   2.76239991,           0.
     19,    1.8596524,    4.4895978,   4.54346943
     20,   1.70275211,   4.11080742,   4.54346943
** ... 6205 like lines cut
*Element, type=C3D8R
 1,    8,  145, 1538,  162,    1,  113, 1523,  144
 2,  145,    5,  160, 1538,  113,    2,  114, 1523
 3,  162, 1538, 1539,  163,  144, 1523, 1524,  143
 4, 1538,  160,  159, 1539, 1523,  114,  115, 1524
 5,  163, 1539, 1540,  164,  143, 1524, 1525,  142
 6, 1539,  159,  158, 1540, 1524,  115,  116, 1525
 7,  164, 1540, 1541,  165,  142, 1525, 1526,  141
 8, 1540,  158,  157, 1541, 1525,  116,  117, 1526
 9,  165, 1541, 1542,  166,  141, 1526, 1527,  140
10, 1541,  157,  156, 1542, 1526,  117,  118, 1527
11,  166, 1542, 1543,  167,  140, 1527, 1528,  139
12, 1542,  156,  155, 1543, 1527,  118,  119, 1528
13,  167, 1543, 1544,  168,  139, 1528, 1529,  138
14, 1543,  155,  154, 1544, 1528,  119,  120, 1529
15,  168, 1544, 1545,  169,  138, 1529, 1530,  137
16, 1544,  154,  153, 1545, 1529,  120,  121, 1530
17,  169, 1545, 1546,  170,  137, 1530, 1531,  136
18, 1545,  153,  152, 1546, 1530,  121,  122, 1531
19,  170, 1546, 1547,  171,  136, 1531, 1532,  135
20, 1546,  152,  151, 1547, 1531,  122,  123, 1532
** ... 4020 like lines cut
*Nset, nset=Bottom
   14,   15,   17,   18,   30,   31,   42,   43,   53,   54,   59,   60,   66,   67,  103,  104
  105,  106,  107,  108,  109,  110,  111,  112,  222,  254,  360,  385,  386,  387,  388,  389
  390,  391,  392,  520,  545,  546,  547,  548,  549,  550,  551,  552,  616,  705,  721,  722
  725,  726,  815,  831,  832,  835,  836, 1326, 1327, 1328, 1329, 1330, 1331, 1332, 1333, 1400
 1401, 1402, 1403, 1404, 1405, 1406, 1407, 1408, 1409, 1410, 1411, 1412, 1413, 1474, 1475, 1476
 1477, 1478, 1479, 1480, 1511, 1512, 1513, 1514, 1515, 1516, 1517, 1518, 1519, 1520, 1521, 1522
 1827, 1828, 1829, 1830, 2200, 2201, 2202, 2203, 2578, 2579, 2811, 2812, 4158, 4159, 4160, 4284
 4285, 4286, 4377, 4378, 4379, 4500, 4501, 4502, 4608, 4609, 4610, 4791, 4792, 4793
*Elset, elset=Bottom
   64,   80,  338,  354,  370,  386,  402,  418,  434,  450,  466,  482,  756,  772,  788,  804
  820,  836,  852,  868,  884,  900,  979,  980, 1191, 1192, 1223, 1224, 1255, 1256, 1479, 1480
 1511, 1512, 1543, 1544, 3145, 3146, 3147, 3148, 3149, 3150, 3151, 3152, 3273, 3274, 3275, 3276
 3277, 3278, 3279, 3280, 3401, 3402, 3403, 3404, 3405, 3406, 3407, 3408, 3529, 3530, 3531, 3532
 3533, 3534, 3535, 3536, 3657, 3658, 3659, 3660, 3661, 3662, 3663, 3664, 4033, 4034, 4035, 4036
 4037, 4038, 4039, 4040
*Nset, nset=Distal
    1,    2,    3,    4,    5,    6,    7,    8,   21,   22,   23,   24,   33,   34,   35,   36
   45,   46,   47,   48,   61,   62,   63,   64,   69,   70,   71,   72,   75,   76,   79,   80
   85,   86,   87,   88,   91,   92,   93,   94,   95,   96,   97,   98,   99,  100,  101,  102
  113,  114,  115,  116,  117,  118,  119,  120,  121,  122,  123,  124,  125,  126,  127,  128
  129,  130,  131,  132,  133,  134,  135,  136,  137,  138,  139,  140,  141,  142,  143,  144
  145,  146,  147,  148,  149,  150,  151,  152,  153,  154,  155,  156,  157,  158,  159,  160
  161,  162,  163,  164,  165,  166,  167,  168,  169,  170,  171,  172,  173,  174,  175,  176
  271,  272,  273,  274,  275,  276,  277,  278,  279,  280,  281,  282,  283,  284,  285,  286
  287,  288,  289,  290,  291,  292,  293,  294,  295,  296,  297,  298,  299,  300,  301,  302
  303,  304,  305,  306,  307,  308,  309,  310,  311,  312,  313,  314,  315,  316,  317,  318
  421,  422,  423,  424,  425,  426,  427,  428,  429,  430,  431,  432,  433,  434,  435,  436
  437,  438,  439,  440,  441,  442,  443,  444,  445,  446,  447,  448,  449,  450,  451,  452
  453,  454,  455,  456,  457,  458,  459,  460,  461,  462,  463,  464,  465,  466,  467,  468
  553,  554,  555,  556,  557,  558,  559,  560,  561,  562,  563,  564,  565,  566,  567,  568
  569,  570,  571,  572,  573,  574,  575,  576,  577,  578,  579,  580,  581,  582,  583,  584
  729,  730,  731,  732,  733,  734,  735,  736,  737,  738,  739,  740,  741,  742,  743,  744
  745,  746,  747,  748,  749,  750,  751,  752,  753,  754,  755,  756,  757,  758,  759,  760
  761,  762,  763,  764,  765,  766,  767,  768,  839,  840,  841,  842,  843,  844,  845,  846
  847,  848,  849,  850,  851,  852,  853,  854,  855,  856,  857,  858,  859,  860,  861,  862
  863,  864,  865,  866,  867,  868,  869,  870,  871,  872,  873,  874,  875,  876,  877,  878
** ... 114 like lines cut
*Elset, elset=Distal
    1,    2,    3,    4,    5,    6,    7,    8,    9,   10,   11,   12,   13,   14,   15,   16
   17,   18,   19,   20,   21,   22,   23,   24,   25,   26,   27,   28,   29,   30,   31,   32
   81,   82,   83,   84,   85,   86,   87,   88,   89,   90,   91,   92,   93,   94,   95,   96
   97,   98,   99,  100,  101,  102,  103,  104,  105,  106,  107,  108,  109,  110,  111,  112
  113,  114,  115,  116,  117,  118,  119,  120,  121,  122,  123,  124,  125,  126,  127,  128
  129,  130,  131,  132,  133,  134,  135,  136,  137,  138,  139,  140,  141,  142,  143,  144
  145,  146,  147,  148,  149,  150,  151,  152,  153,  154,  155,  156,  157,  158,  159,  160
  161,  162,  163,  164,  165,  166,  167,  168,  169,  170,  171,  172,  173,  174,  175,  176
  177,  178,  179,  180,  181,  182,  183,  184,  185,  186,  187,  188,  189,  190,  191,  192
  193,  194,  195,  196,  197,  198,  199,  200,  201,  202,  203,  204,  205,  206,  207,  208
  209,  210,  211,  212,  213,  214,  215,  216,  217,  218,  219,  220,  221,  222,  223,  224
  225,  226,  227,  228,  229,  230,  231,  232,  233,  234,  235,  236,  237,  238,  239,  240
  499,  500,  501,  502,  503,  504,  505,  506,  507,  508,  509,  510,  511,  512,  513,  514
  515,  516,  517,  518,  519,  520,  521,  522,  523,  524,  525,  526,  527,  528,  529,  530
  531,  532,  533,  534,  535,  536,  537,  538,  539,  540,  541,  542,  543,  544,  545,  546
  547,  548,  549,  550,  551,  552,  553,  554,  555,  556,  557,  558,  559,  560,  561,  562
  563,  564,  565,  566,  567,  568,  569,  570,  571,  572,  573,  574,  575,  576,  577,  578
  579,  580,  581,  582,  583,  584,  585,  586,  587,  588,  589,  590,  591,  592,  593,  594
  595,  596,  597,  598,  599,  600,  601,  602,  603,  604,  605,  606,  607,  608,  609,  610
  611,  612,  613,  614,  615,  616,  617,  618,  619,  620,  621,  622,  623,  624,  625,  626
** ... 64 like lines cut
*Nset, nset=Mid
    1,    2,    5,    8,    9,   10,   11,   12,   13,   16,   19,   20,   21,   22,   25,   26
   27,   28,   29,   32,   33,   34,   37,   38,   39,   40,   41,   44,   47,   48,   49,   50
   51,   52,   55,   56,   57,   58,   61,   62,   65,   68,   70,   71,   73,   74,   75,   76
   77,   78,   79,   80,   81,   82,   83,   84,   85,   86,   87,   88,   89,   90,   91,   92
  113,  145,  177,  178,  179,  180,  181,  182,  183,  184,  185,  186,  187,  188,  189,  190
  191,  192,  193,  194,  195,  196,  197,  198,  199,  200,  201,  202,  203,  204,  205,  206
  238,  270,  271,  307,  308,  309,  310,  315,  316,  317,  318,  319,  320,  321,  322,  323
  324,  325,  326,  327,  328,  329,  330,  331,  332,  333,  334,  335,  336,  337,  338,  339
  340,  341,  342,  343,  344,  376,  377,  378,  379,  380,  381,  382,  383,  384,  393,  394
  395,  396,  397,  398,  399,  400,  401,  402,  403,  404,  405,  406,  407,  408,  409,  410
  411,  412,  413,  414,  415,  416,  417,  418,  419,  420,  421,  457,  458,  459,  460,  465
  466,  467,  468,  469,  470,  471,  472,  473,  474,  475,  476,  477,  478,  479,  480,  481
  482,  483,  484,  485,  486,  487,  488,  489,  490,  491,  492,  493,  494,  495,  496,  497
  498,  499,  500,  501,  502,  503,  504,  536,  537,  538,  539,  540,  541,  542,  543,  544
  569,  585,  586,  587,  588,  589,  590,  591,  592,  593,  594,  595,  596,  597,  598,  599
  600,  632,  633,  634,  635,  636,  637,  638,  639,  640,  641,  642,  643,  644,  645,  646
  647,  648,  649,  650,  651,  652,  653,  654,  655,  656,  657,  658,  659,  660,  661,  662
  663,  664,  665,  666,  667,  668,  669,  670,  671,  672,  673,  674,  675,  676,  677,  678
  679,  680,  681,  682,  683,  684,  685,  686,  687,  688,  689,  723,  724,  727,  728,  729
  763,  764,  767,  768,  769,  770,  771,  772,  773,  774,  775,  776,  777,  778,  779,  780
** ... 118 like lines cut
*Elset, elset=Mid
   33,   34,   35,   36,   37,   38,   39,   40,   41,   42,   43,   44,   45,   46,   47,   48
  241,  242,  243,  244,  245,  246,  247,  248,  249,  250,  251,  252,  253,  254,  255,  256
  257,  258,  259,  260,  261,  262,  263,  264,  265,  266,  267,  268,  269,  270,  271,  272
  273,  274,  275,  276,  277,  278,  279,  280,  281,  282,  283,  284,  285,  286,  287,  288
  289,  290,  291,  292,  293,  294,  295,  296,  297,  298,  299,  300,  301,  302,  303,  304
  305,  306,  307,  308,  309,  310,  311,  312,  313,  314,  315,  316,  317,  318,  319,  320
  321,  322,  483,  484,  485,  486,  487,  488,  489,  490,  491,  492,  493,  494,  495,  496
  497,  498,  659,  660,  661,  662,  663,  664,  665,  666,  667,  668,  669,  670,  671,  672
  673,  674,  675,  676,  677,  678,  679,  680,  681,  682,  683,  684,  685,  686,  687,  688
  689,  690,  691,  692,  693,  694,  695,  696,  697,  698,  699,  700,  701,  702,  703,  704
  705,  706,  707,  708,  709,  710,  711,  712,  713,  714,  715,  716,  717,  718,  719,  720
  721,  722,  723,  724,  725,  726,  727,  728,  729,  730,  731,  732,  733,  734,  735,  736
  737,  738,  739,  740,  933,  934,  935,  936,  937,  938,  939,  940,  941,  942,  943,  944
  945,  946,  947,  948,  981,  982,  983,  984,  985,  986,  987,  988,  989,  990,  991,  992
  993,  994,  995,  996,  997,  998,  999, 1000, 1001, 1002, 1003, 1004, 1005, 1006, 1007, 1008
 1009, 1010, 1011, 1012, 1013, 1014, 1015, 1016, 1017, 1018, 1019, 1020, 1021, 1022, 1023, 1024
 1025, 1026, 1027, 1028, 1029, 1030, 1031, 1032, 1033, 1034, 1035, 1036, 1037, 1038, 1039, 1040
 1041, 1042, 1043, 1044, 1045, 1046, 1047, 1048, 1049, 1050, 1051, 1052, 1053, 1054, 1055, 1056
 1057, 1058, 1059, 1060, 1061, 1062, 1063, 1064, 1065, 1066, 1067, 1068, 1069, 1070, 1071, 1072
 1073, 1074, 1075, 1076, 1077, 1078, 1079, 1080, 1081, 1082, 1083, 1084, 1085, 1086, 1087, 1088
** ... 65 like lines cut
*Nset, nset=Proximal
   13,   14,   15,   16,   17,   18,   19,   20,   29,   30,   31,   32,   41,   42,   43,   44
   51,   52,   53,   54,   57,   58,   59,   60,   65,   66,   67,   68,   73,   74,   77,   78
   81,   82,   83,   84,   89,   90,  103,  104,  105,  106,  107,  108,  109,  110,  111,  112
  207,  208,  209,  210,  211,  212,  213,  214,  215,  216,  217,  218,  219,  220,  221,  222
  223,  224,  225,  226,  227,  228,  229,  230,  231,  232,  233,  234,  235,  236,  237,  238
  239,  240,  241,  242,  243,  244,  245,  246,  247,  248,  249,  250,  251,  252,  253,  254
  255,  256,  257,  258,  259,  260,  261,  262,  263,  264,  265,  266,  267,  268,  269,  270
  345,  346,  347,  348,  349,  350,  351,  352,  353,  354,  355,  356,  357,  358,  359,  360
  361,  362,  363,  364,  365,  366,  367,  368,  369,  370,  371,  372,  373,  374,  375,  376
  377,  378,  379,  380,  381,  382,  383,  384,  385,  386,  387,  388,  389,  390,  391,  392
  505,  506,  507,  508,  509,  510,  511,  512,  513,  514,  515,  516,  517,  518,  519,  520
  521,  522,  523,  524,  525,  526,  527,  528,  529,  530,  531,  532,  533,  534,  535,  536
  537,  538,  539,  540,  541,  542,  543,  544,  545,  546,  547,  548,  549,  550,  551,  552
  600,  601,  602,  603,  604,  605,  606,  607,  608,  609,  610,  611,  612,  613,  614,  615
  616,  617,  618,  619,  620,  621,  622,  623,  624,  625,  626,  627,  628,  629,  630,  631
  689,  690,  691,  692,  693,  694,  695,  696,  697,  698,  699,  700,  701,  702,  703,  704
  705,  706,  707,  708,  709,  710,  711,  712,  713,  714,  715,  716,  717,  718,  719,  720
  721,  722,  723,  724,  725,  726,  727,  728,  799,  800,  801,  802,  803,  804,  805,  806
  807,  808,  809,  810,  811,  812,  813,  814,  815,  816,  817,  818,  819,  820,  821,  822
  823,  824,  825,  826,  827,  828,  829,  830,  831,  832,  833,  834,  835,  836,  837,  838
** ... 114 like lines cut
*Elset, elset=Proximal
   49,   50,   51,   52,   53,   54,   55,   56,   57,   58,   59,   60,   61,   62,   63,   64
   65,   66,   67,   68,   69,   70,   71,   72,   73,   74,   75,   76,   77,   78,   79,   80
  323,  324,  325,  326,  327,  328,  329,  330,  331,  332,  333,  334,  335,  336,  337,  338
  339,  340,  341,  342,  343,  344,  345,  346,  347,  348,  349,  350,  351,  352,  353,  354
  355,  356,  357,  358,  359,  360,  361,  362,  363,  364,  365,  366,  367,  368,  369,  370
  371,  372,  373,  374,  375,  376,  377,  378,  379,  380,  381,  382,  383,  384,  385,  386
  387,  388,  389,  390,  391,  392,  393,  394,  395,  396,  397,  398,  399,  400,  401,  402
  403,  404,  405,  406,  407,  408,  409,  410,  411,  412,  413,  414,  415,  416,  417,  418
  419,  420,  421,  422,  423,  424,  425,  426,  427,  428,  429,  430,  431,  432,  433,  434
  435,  436,  437,  438,  439,  440,  441,  442,  443,  444,  445,  446,  447,  448,  449,  450
  451,  452,  453,  454,  455,  456,  457,  458,  459,  460,  461,  462,  463,  464,  465,  466
  467,  468,  469,  470,  471,  472,  473,  474,  475,  476,  477,  478,  479,  480,  481,  482
  741,  742,  743,  744,  745,  746,  747,  748,  749,  750,  751,  752,  753,  754,  755,  756
  757,  758,  759,  760,  761,  762,  763,  764,  765,  766,  767,  768,  769,  770,  771,  772
  773,  774,  775,  776,  777,  778,  779,  780,  781,  782,  783,  784,  785,  786,  787,  788
  789,  790,  791,  792,  793,  794,  795,  796,  797,  798,  799,  800,  801,  802,  803,  804
  805,  806,  807,  808,  809,  810,  811,  812,  813,  814,  815,  816,  817,  818,  819,  820
  821,  822,  823,  824,  825,  826,  827,  828,  829,  830,  831,  832,  833,  834,  835,  836
  837,  838,  839,  840,  841,  842,  843,  844,  845,  846,  847,  848,  849,  850,  851,  852
  853,  854,  855,  856,  857,  858,  859,  860,  861,  862,  863,  864,  865,  866,  867,  868
** ... 64 like lines cut
*Nset, nset=Top
    3,    4,    6,    7,   23,   24,   35,   36,   45,   46,   63,   64,   69,   72,   93,   94
   95,   96,   97,   98,   99,  100,  101,  102,  129,  161,  287,  303,  304,  305,  306,  311
  312,  313,  314,  437,  453,  454,  455,  456,  461,  462,  463,  464,  553,  745,  761,  762
  765,  766,  839,  873,  874,  877,  878, 1129, 1130, 1131, 1132, 1133, 1134, 1135, 1166, 1167
 1168, 1169, 1170, 1171, 1172, 1203, 1204, 1205, 1206, 1207, 1208, 1209, 1210, 1271, 1272, 1273
 1274, 1275, 1276, 1277, 1308, 1309, 1310, 1311, 1312, 1313, 1317, 1318, 1319, 1323, 1324, 1325
 1736, 1737, 1738, 1739, 2104, 2105, 2106, 2107, 2657, 2658, 2888, 2889, 3522, 3523, 3524, 3630
 3631, 3632, 3738, 3739, 3740, 3861, 3862, 3863, 3969, 3970, 3971, 4155, 4156, 4157
*Elset, elset=Top
   31,   32,  111,  112,  143,  144,  175,  176,  207,  208,  239,  240,  529,  530,  561,  562
  593,  594,  625,  626,  657,  658,  901,  902, 1287, 1288, 1319, 1320, 1351, 1352, 1545, 1546
 1577, 1578, 1609, 1610, 2377, 2378, 2379, 2380, 2381, 2382, 2383, 2384, 2505, 2506, 2507, 2508
 2509, 2510, 2511, 2512, 2633, 2634, 2635, 2636, 2637, 2638, 2639, 2640, 2761, 2762, 2763, 2764
 2765, 2766, 2767, 2768, 2889, 2890, 2891, 2892, 2893, 2894, 2895, 2896, 3077, 3078, 3079, 3080
 3141, 3142, 3143, 3144
*Nset, nset=Vagina, generate
    1,  6225,     1
*Elset, elset=Vagina, generate
    1,  4040,     1
*Elset, elset=_Bottom_S4, internal
  64,  80, 338, 354, 370, 386, 402, 418, 434, 450, 466, 482, 756, 772, 788, 804
 820, 836, 852, 868, 884, 900
*Elset, elset=_Bottom_S5, internal
  979,  980, 1191, 1192, 1223, 1224, 1255, 1256, 1479, 1480, 1511, 1512, 1543, 1544
*Elset, elset=_Bottom_S2, internal
 3145, 3146, 3147, 3148, 3149, 3150, 3151, 3152, 3273, 3274, 3275, 3276, 3277, 3278, 3279, 3280
 3401, 3402, 3403, 3404, 3405, 3406, 3407, 3408, 3529, 3530, 3531, 3532, 3533, 3534, 3535, 3536
 3657, 3658, 3659, 3660, 3661, 3662, 3663, 3664
*Elset, elset=_Bottom_S1, internal, generate
 4033,  4040,     1
*Surface, type=ELEMENT, name=Bottom
_Bottom_S4, S4
_Bottom_S5, S5
_Bottom_S2, S2
_Bottom_S1, S1
*Elset, elset=_Top_S5, internal
   31,   32,  111,  112,  143,  144,  175,  176,  207,  208,  239,  240,  529,  530,  561,  562
  593,  594,  625,  626,  657,  658, 1287, 1288, 1319, 1320, 1351, 1352, 3077, 3078, 3079, 3080
 3141, 3142, 3143, 3144
*Elset, elset=_Top_S3, internal
  901,  902, 1545, 1546, 1577, 1578, 1609, 1610
*Elset, elset=_Top_S2, internal
 2377, 2378, 2379, 2380, 2381, 2382, 2383, 2384, 2505, 2506, 2507, 2508, 2509, 2510, 2511, 2512
 2633, 2634, 2635, 2636, 2637, 2638, 2639, 2640, 2761, 2762, 2763, 2764, 2765, 2766, 2767, 2768
 2889, 2890, 2891, 2892, 2893, 2894, 2895, 2896
*Surface, type=ELEMENT, name=Top
_Top_S5, S5
_Top_S3, S3
_Top_S2, S2
*Elset, elset=_Lumen_S6, internal
    1,    3,    5,    7,    9,   11,   13,   15,   17,   19,   21,   23,   25,   27,   29,   31
   33,   35,   37,   39,   41,   43,   45,   47,   81,   83,   85,   87,   89,   91,   93,   95
   97,   99,  101,  103,  105,  107,  109,  111,  113,  115,  117,  119,  121,  123,  125,  127
  129,  131,  133,  135,  137,  139,  141,  143,  145,  147,  149,  151,  153,  155,  157,  159
  161,  163,  165,  167,  169,  171,  173,  175,  177,  179,  181,  183,  185,  187,  189,  191
  193,  195,  197,  199,  201,  203,  205,  207,  209,  211,  213,  215,  217,  219,  221,  223
  225,  227,  229,  231,  233,  235,  237,  239,  483,  485,  487,  489,  491,  493,  495,  497
  499,  501,  503,  505,  507,  509,  511,  513,  515,  517,  519,  521,  523,  525,  527,  529
  531,  533,  535,  537,  539,  541,  543,  545,  547,  549,  551,  553,  555,  557,  559,  561
  563,  565,  567,  569,  571,  573,  575,  577,  579,  581,  583,  585,  587,  589,  591,  593
  595,  597,  599,  601,  603,  605,  607,  609,  611,  613,  615,  617,  619,  621,  623,  625
  627,  629,  631,  633,  635,  637,  639,  641,  643,  645,  647,  649,  651,  653,  655,  657
  933,  935,  937,  939,  941,  943,  945,  947, 1161, 1163, 1165, 1167, 1169, 1171, 1173, 1175
 1177, 1179, 1181, 1183, 1185, 1187, 1189, 1191, 1193, 1195, 1197, 1199, 1201, 1203, 1205, 1207
 1209, 1211, 1213, 1215, 1217, 1219, 1221, 1223, 1225, 1227, 1229, 1231, 1233, 1235, 1237, 1239
 1241, 1243, 1245, 1247, 1249, 1251, 1253, 1255, 1353, 1355, 1357, 1359, 1361, 1363, 1365, 1367
 1369, 1371, 1373, 1375, 1377, 1379, 1381, 1383, 1385, 1387, 1389, 1391, 1393, 1395, 1397, 1399
 1401, 1403, 1405, 1407, 1409, 1411, 1413, 1415, 1417, 1419, 1421, 1423, 1425, 1427, 1429, 1431
 1433, 1435, 1437, 1439, 1441, 1443, 1445, 1447, 1737, 1739, 1741, 1743, 1745, 1747, 1749, 1751
 1753, 1755, 1757, 1759, 1761, 1763, 1765, 1767, 1769, 1771, 1773, 1775, 1777, 1779, 1781, 1783
** ... 31 like lines cut
*Elset, elset=_Lumen_S3, internal
   49,   50,   51,   52,   53,   54,   55,   56,   57,   58,   59,   60,   61,   62,   63,   64
  265,  266,  267,  268,  269,  270,  271,  272,  273,  274,  275,  276,  277,  278,  279,  280
  281,  282,  283,  284,  285,  286,  287,  288,  309,  310,  311,  312,  313,  314,  315,  316
  320,  321,  323,  324,  325,  326,  327,  328,  329,  330,  331,  332,  333,  334,  335,  336
  337,  338,  355,  356,  357,  358,  359,  360,  361,  362,  363,  364,  365,  366,  367,  368
  369,  370,  387,  388,  389,  390,  391,  392,  393,  394,  395,  396,  397,  398,  399,  400
  401,  402,  419,  420,  421,  422,  423,  424,  425,  426,  427,  428,  429,  430,  431,  432
  433,  434,  451,  452,  453,  454,  455,  456,  457,  458,  459,  460,  461,  462,  463,  464
  465,  466,  713,  714,  715,  716,  717,  718,  738,  741,  742,  743,  744,  745,  746,  747
  748,  749,  750,  751,  752,  753,  754,  755,  756,  773,  774,  775,  776,  777,  778,  779
  780,  781,  782,  783,  784,  785,  786,  787,  788,  805,  806,  807,  808,  809,  810,  811
  812,  813,  814,  815,  816,  817,  818,  819,  820,  837,  838,  839,  840,  841,  842,  843
  844,  845,  846,  847,  848,  849,  850,  851,  852,  869,  870,  871,  872,  873,  874,  875
  876,  877,  878,  879,  880,  881,  882,  883,  884, 1009, 1079, 1080, 1081, 1082, 1083, 1084
 1093, 1094, 1095, 1096, 1097, 1098, 1099, 1100, 1101, 1102, 1103, 1104, 1105, 1106, 1107, 1108
 1109, 1110, 1111, 1112, 1113, 1114, 1115, 1116, 1141, 1142, 1143, 1144, 1145, 1146, 1147, 1148
 1159, 1160, 2121, 2122, 2123, 2124, 2129, 2130, 2131, 2132, 2137, 2138, 2139, 2140, 2145, 2146
 2147, 2148, 2153, 2154, 2155, 2156, 2161, 2162, 2163, 2164, 2169, 2170, 2171, 2172, 2177, 2178
 2179, 2180, 2185, 2186, 2187, 2188, 2193, 2194, 2195, 2196, 2201, 2202, 2203, 2204, 2209, 2210
 2211, 2212, 2217, 2218, 2219, 2220, 2225, 2226, 2227, 2228, 2233, 2234, 2235, 2236, 2241, 2242
 2243, 2244
*Elset, elset=_Lumen_S4, internal
  289,  290,  291,  292,  293,  294,  659,  660,  661,  662,  663,  664,  665,  666,  667,  668
  669,  670,  671,  672,  673,  674,  675,  676,  677,  678,  679,  680,  681,  682,  727,  728
  729,  730,  731,  732,  733,  734,  902,  904,  906,  908,  910,  912,  914,  916,  918,  920
  922,  924,  926,  928,  930,  932,  950,  952,  954,  956,  958,  960,  962,  964,  966,  968
  970,  972,  974,  976,  978,  980,  982,  984,  986,  988,  990,  992,  994,  996, 1003, 1004
 1005, 1006, 1007, 1008, 1035, 1036, 1037, 1038, 1039, 1040, 1041, 1042, 1043, 1044, 1045, 1046
 1047, 1048, 1049, 1050, 1051, 1052, 1053, 1054, 1055, 1056, 1057, 1058, 1059, 1060, 1061, 1062
 1063, 1064, 1065, 1066, 1075, 1076, 1092, 1258, 1260, 1262, 1264, 1266, 1268, 1270, 1272, 1274
 1276, 1278, 1280, 1282, 1284, 1286, 1288, 1290, 1292, 1294, 1296, 1298, 1300, 1302, 1304, 1306
 1308, 1310, 1312, 1314, 1316, 1318, 1320, 1322, 1324, 1326, 1328, 1330, 1332, 1334, 1336, 1338
 1340, 1342, 1344, 1346, 1348, 1350, 1352, 1450, 1452, 1454, 1456, 1458, 1460, 1462, 1464, 1466
 1468, 1470, 1472, 1474, 1476, 1478, 1480, 1482, 1484, 1486, 1488, 1490, 1492, 1494, 1496, 1498
 1500, 1502, 1504, 1506, 1508, 1510, 1512, 1514, 1516, 1518, 1520, 1522, 1524, 1526, 1528, 1530
 1532, 1534, 1536, 1538, 1540, 1542, 1544, 1546, 1548, 1550, 1552, 1554, 1556, 1558, 1560, 1562
 1564, 1566, 1568, 1570, 1572, 1574, 1576, 1578, 1580, 1582, 1584, 1586, 1588, 1590, 1592, 1594
 1596, 1598, 1600, 1602, 1604, 1606, 1608, 1610, 1612, 1614, 1616, 1618, 1620, 1622, 1624, 1626
 1628, 1630, 1632, 1634, 1636, 1638, 1640, 1642, 1644, 1646, 1648, 1650, 1652, 1654, 1656, 1658
 1660, 1662, 1664, 1666, 1668, 1670, 1672, 1674, 1676, 1678, 1680, 1682, 1684, 1686, 1688, 1690
 1692, 1694, 1696, 1698, 1700, 1702, 1704, 1706, 1708, 1710, 1712, 1714, 1716, 1718, 1720, 1722
 1724, 1726, 1728, 1730, 1732, 1734, 1736, 2250, 2252, 2254, 2256, 2258, 2260, 2262, 2264, 2266
** ... 32 like lines cut
*Elset, elset=_Lumen_S2, internal
 322, 739, 740
*Elset, elset=_Lumen_S1, internal, generate
 3081,  3144,     1
*Surface, type=ELEMENT, name=Lumen
_Lumen_S6, S6
_Lumen_S3, S3
_Lumen_S4, S4
_Lumen_S2, S2
_Lumen_S1, S1
*Orientation, name=Ori-1, system=CYLINDRICAL
          0.,           0.,           0.,           0.,           0.,           1.
1, 0.
** Section: Distal
*Solid Section, elset=Distal, orientation=Ori-1, controls=EC-1, material=HGO-Distal
,
*Orientation, name=Ori-2, system=CYLINDRICAL
          0.,           0.,           0.,           0.,           0.,           1.
1, 0.
** Section: Mid
*Solid Section, elset=Mid, orientation=Ori-2, controls=EC-1, material=HGO-Mid
,
*Orientation, name=Ori-3, system=CYLINDRICAL
          0.,           0.,           0.,           0.,           0.,           1.
1, 0.
** Section: Proximal
*Solid Section, elset=Proximal, orientation=Ori-3, controls=EC-1, material=HGO-Proximal
,
*End Part
**  
**
** ASSEMBLY
**
*Assembly, name=Assembly
**  
*Instance, name=Vagina-1, part=Vagina
*End Instance
**  
*End Assembly
** 
** ELEMENT CONTROLS
** 
*Section Controls, name=EC-1, DISTORTION CONTROL=YES, ELEMENT DELETION=YES, hourglass=ENHANCED, second order accuracy=YES
1., 1., 1.
*Amplitude, name=Constant
             0.,              1.,              1.,              1.
*Amplitude, name=Inflation
             0., 0., 1., 1.
*Amplitude, name=Smooth, definition=SMOOTH STEP
             0.,              0.,              1.,              1.
** 
** MATERIALS
**
*Parameter
Pi = 3.141592654
beta1 = 40.78
beta2 = 18.85
beta3 = 63.2
c1 = cos(beta1*Pi/180)
s1 = sin(beta1*Pi/180)
c11 = c1
s11 = -s1
c2 = cos(beta2*Pi/180)
s2 = sin(beta2*Pi/180)
c22 = c2
s22 = -s2
c3 = cos(beta3*Pi/180)
s3 = sin(beta3*Pi/180)
c33 = c3
s33 = -s3
C10 = 0.003
D1 = 0.05
k1 = 1.0
k2 = 1.0
kap = 0.25
N = 2
T1 = 1.35
T2 = 1.36
*Material, name=HGO-Distal
*Density
 0.003655,
*Depvar, delete=16
     16,
*User Material, constants=14
<C10>,    <D1>,     <k1>,     <k2>,    <kap>,      <N>,      0.,  <c1>
  <s1>,      0.,  <c11>,   <s11>,    <T1>,     <T2>
*Material, name=HGO-Mid
*Density
 0.003655,
*Depvar, delete=16
     16,
*User Material, constants=14
 <C10>,    <D1>,     <k1>,     <k2>,    <kap>,      <N>,      0.,  <c2>
  <s2>,      0.,  <c22>,   <s22>,    <T1>,     <T2>
*Material, name=HGO-Proximal
*Density
 0.003655,
*Depvar, delete=16
     16,
*User Material, constants=14
 <C10>,    <D1>,     <k1>,     <k2>,    <kap>,      <N>,      0.,  <c3>
  <s3>,      0.,  <c33>,   <s33>,    <T1>,     <T2>
** 
** BOUNDARY CONDITIONS
** 
** Name: BC-1 Type: Symmetry/Antisymmetry/Encastre
*Boundary
Vagina-1.Bottom, ENCASTRE
** Name: BC-2 Type: Displacement/Rotation
*Boundary
Vagina-1.Top, 1, 1
Vagina-1.Top, 2, 2
Vagina-1.Top, 3, 3
** ----------------------------------------------------------------
** 
** STEP: Inflation
** 
*Step, name=Inflation, nlgeom=YES, inc=10000, unsymm=YES
*Static, stabilize=0.0002, allsdtol=0.05, continue=NO
0.0001, 1., 1e-15, 0.01
**Solution Technique, type=quasi-newton
** 
** LOADS
** 
** Name: Needle   Type: Pressure
**Dsload, amplitude=Constant
**Vagina-1.Top, P, 0.006
** Name: Pressure   Type: Pressure
*Dsload, amplitude=Inflation
Vagina-1.Lumen, P, 0.050
** 
** CONTROLS
** 
*Controls, reset
*Controls, analysis=discontinuous
*Controls, parameters=time incrementation
, , , , , , , 20, , , 
** 
** OUTPUT REQUESTS
** 
*Restart, write, frequency=0
** 
** FIELD OUTPUT: F-Output-1
** 
*Output, field
*Node Output
U
*Element Output, directions=YES
S, SDV, STATUS
** 
** HISTORY OUTPUT: H-Output-1
** 
*Output, history, variable=PRESELECT
*Node Print
U
*El Print, position=AVERAGED AT NODES
SDV2, SDV3, SDV11, SDV12, SDV14, SDV15 
*El Print
SDV16
*End Step
**
** STEP: Load/Stiffness Generation
**
*Step, name=Global_Load_Vector
*MATRIX GENERATE, STIFFNESS, LOAD
*MATRIX OUTPUT, STIFFNESS, LOAD, FORMAT=COORDINATE
*Dsload
Vagina-1.Lumen, P, 0.050
*End Step